// Generated for: spectre
// Generated on: Apr 26 10:45:55 2022
// Design library name: avatar_local
// Design cell name: fet_test
// Design view name: schematic
simulator lang=spectre
global 0
